@<TRIPOS>MOLECULE
1540441.cif
61 67 1 0 0
SMALL
NO_CHARGES


@<TRIPOS>ATOM
      1 O1         -0.0905    5.5166   12.3212 O.3       1 mo_molan378_0m    0.0000
      2 C25         0.2148    3.5148   10.5539 C.ar      1 mo_molan378_0m    0.0000
      3 C14         1.2528    4.5034    7.6327 C.2       1 mo_molan378_0m    0.0000
      4 C21         0.4429    5.9274   11.1286 C.ar      1 mo_molan378_0m    0.0000
      5 C13         1.7540    3.2686    7.3766 C.2       1 mo_molan378_0m    0.0000
      6 C26        -0.8252    2.9396    9.8619 C.ar      1 mo_molan378_0m    0.0000
      7 H26        -1.2025    3.3992    9.1219 H         1 mo_molan378_0m    0.0000
      8 C1          1.7183    2.5437    6.0696 C.ar      1 mo_molan378_0m    0.0000
      9 C11         3.0507    2.6072    9.5438 C.ar      1 mo_molan378_0m    0.0000
     10 H11         2.9013    3.4342    9.9869 H         1 mo_molan378_0m    0.0000
     11 C19         1.0732    7.6244    9.5385 C.ar      1 mo_molan378_0m    0.0000
     12 H19         1.2275    8.5364    9.3209 H         1 mo_molan378_0m    0.0000
     13 C23         0.6509    4.8945   10.1848 C.ar      1 mo_molan378_0m    0.0000
     14 C34         0.7880    2.8150   11.6680 C.ar      1 mo_molan378_0m    0.0000
     15 C8          3.5773    0.1811    8.2153 C.ar      1 mo_molan378_0m    0.0000
     16 H8          3.7557   -0.6352    7.7635 H         1 mo_molan378_0m    0.0000
     17 C20         0.7031    7.2626   10.8309 C.ar      1 mo_molan378_0m    0.0000
     18 H20         0.6286    7.9245   11.5072 H         1 mo_molan378_0m    0.0000
     19 C7          2.8346    1.1819    7.6040 C.ar      1 mo_molan378_0m    0.0000
     20 C15         0.8725    5.4878    6.5329 C.3       1 mo_molan378_0m    0.0000
     21 H15         1.3338    5.2571    5.6753 H         1 mo_molan378_0m    0.0000
     22 C24         1.0804    5.2753    8.8983 C.ar      1 mo_molan378_0m    0.0000
     23 C18         1.2127    6.6449    8.5780 C.ar      1 mo_molan378_0m    0.0000
     24 C12         2.5109    2.3759    8.2838 C.ar      1 mo_molan378_0m    0.0000
     25 C9          4.0543    0.3990    9.5019 C.ar      1 mo_molan378_0m    0.0000
     26 H9          4.5471   -0.2825    9.9444 H         1 mo_molan378_0m    0.0000
     27 C33         1.8496    3.3486   12.4438 C.ar      1 mo_molan378_0m    0.0000
     28 H33         2.1861    4.2127   12.2395 H         1 mo_molan378_0m    0.0000
     29 C27        -1.3425    1.6789   10.2326 C.ar      1 mo_molan378_0m    0.0000
     30 H27        -2.0752    1.3104    9.7534 H         1 mo_molan378_0m    0.0000
     31 C3          1.2485    1.9192    3.7870 C.ar      1 mo_molan378_0m    0.0000
     32 H3          0.8622    2.1258    2.9451 H         1 mo_molan378_0m    0.0000
     33 C6          2.3548    1.2902    6.2299 C.ar      1 mo_molan378_0m    0.0000
     34 C29         0.2861    1.5272   12.0084 C.ar      1 mo_molan378_0m    0.0000
     35 C16        -0.6476    5.5052    6.3445 C.3       1 mo_molan378_0m    0.0000
     36 H16A       -0.8920    6.2245    5.7258 H         1 mo_molan378_0m    0.0000
     37 H16B       -1.0820    5.6575    7.2089 H         1 mo_molan378_0m    0.0000
     38 H16C       -0.9413    4.6452    5.9778 H         1 mo_molan378_0m    0.0000
     39 C17         1.4014    6.8266    7.0972 C.3       1 mo_molan378_0m    0.0000
     40 H17A        2.3554    6.9610    6.8693 H         1 mo_molan378_0m    0.0000
     41 H17B        0.8740    7.5933    6.7579 H         1 mo_molan378_0m    0.0000
     42 C2          1.1295    2.8321    4.8348 C.ar      1 mo_molan378_0m    0.0000
     43 H2          0.6522    3.6437    4.7095 H         1 mo_molan378_0m    0.0000
     44 C4          1.9218    0.7111    3.9510 C.ar      1 mo_molan378_0m    0.0000
     45 H4          2.0076    0.1130    3.2184 H         1 mo_molan378_0m    0.0000
     46 C10         3.8137    1.6101   10.1487 C.ar      1 mo_molan378_0m    0.0000
     47 H10         4.1751    1.7585   11.0137 H         1 mo_molan378_0m    0.0000
     48 C5          2.4674    0.3804    5.1847 C.ar      1 mo_molan378_0m    0.0000
     49 H5          2.9087   -0.4511    5.3118 H         1 mo_molan378_0m    0.0000
     50 C30         0.8829    0.8211   13.0952 C.ar      1 mo_molan378_0m    0.0000
     51 H30         0.5519   -0.0380   13.3300 H         1 mo_molan378_0m    0.0000
     52 C31         1.9174    1.3550   13.8002 C.ar      1 mo_molan378_0m    0.0000
     53 H31         2.3150    0.8603   14.5081 H         1 mo_molan378_0m    0.0000
     54 C28        -0.7959    0.9854   11.2759 C.ar      1 mo_molan378_0m    0.0000
     55 H28        -1.1452    0.1335   11.5099 H         1 mo_molan378_0m    0.0000
     56 C22        -0.4216    6.5116   13.2838 C.3       1 mo_molan378_0m    0.0000
     57 H22A       -1.0388    7.1598   12.8843 H         1 mo_molan378_0m    0.0000
     58 H22B        0.3939    6.9717   13.5715 H         1 mo_molan378_0m    0.0000
     59 H22C       -0.8480    6.0881   14.0570 H         1 mo_molan378_0m    0.0000
     60 C32         2.3993    2.6430   13.4812 C.ar      1 mo_molan378_0m    0.0000
     61 H32         3.1079    3.0221   13.9880 H         1 mo_molan378_0m    0.0000
@<TRIPOS>BOND
     1    4    1 1
     2   56    1 1
     3    2   14 ar
     4    2   13 1
     5    2    6 ar
     6    5    3 2
     7    3   20 1
     8    3   22 1
     9    4   17 ar
    10    4   13 ar
    11    5   24 1
    12    5    8 1
    13    6   29 ar
    14    8   33 ar
    15    8   42 ar
    16    9   46 ar
    17    9   24 ar
    18   11   17 ar
    19   11   23 ar
    20   13   22 ar
    21   14   27 ar
    22   14   34 ar
    23   19   15 ar
    24   15   25 ar
    25   19   33 1
    26   19   24 ar
    27   20   39 1
    28   20   35 1
    29   22   23 ar
    30   23   39 1
    31   25   46 ar
    32   27   60 ar
    33   29   54 ar
    34   31   44 ar
    35   31   42 ar
    36   33   48 ar
    37   34   50 ar
    38   34   54 ar
    39   44   48 ar
    40   50   52 ar
    41   52   60 ar
    42    6    7 1
    43    9   10 1
    44   11   12 1
    45   15   16 1
    46   17   18 1
    47   20   21 1
    48   25   26 1
    49   27   28 1
    50   29   30 1
    51   31   32 1
    52   35   36 1
    53   35   37 1
    54   35   38 1
    55   39   40 1
    56   39   41 1
    57   42   43 1
    58   44   45 1
    59   46   47 1
    60   48   49 1
    61   50   51 1
    62   52   53 1
    63   54   55 1
    64   56   57 1
    65   56   58 1
    66   56   59 1
    67   60   61 1
@<TRIPOS>SUBSTRUCTURE
     1 mo_molan378_0m     1 RESIDUE           4 A     mo_molan378_0m     0 ROOT
