# Torsion scan of Feringa's second generation motor
# Created by GaussView 5.0.8
#

#
#

@<TRIPOS>MOLECULE
Molecule Name
61 67
SMALL
NO_CHARGES


@<TRIPOS>ATOM
1 O1     4.2495     0.3095    -0.0033 O
2 C2     1.7988    -0.7549     0.7251 C
3 C3    -0.4814     1.2957     0.8492 C
4 C4     3.2409     1.2242     0.1604 C
5 C5    -1.2882     0.2865     0.2103 C
6 C6     1.6312    -1.2016     2.0065 C
7 H7     1.6404    -0.4978     2.8169 H
8 C8    -2.0077     0.8178    -0.9884 C
9 C9    -2.2998    -1.2745     2.0276 C
10 H10    -1.4326    -1.2364     2.6571 H
11 C11     2.3855     3.4795     0.2206 C
12 H12     2.5498     4.5340     0.1071 H
13 C13     1.9917     0.7053     0.4968 C
14 C14     1.7990    -1.6939    -0.3560 C
15 C15    -4.5606    -1.4227     0.3875 C
16 H16    -5.4347    -1.4689    -0.2349 H
17 C17     3.4375     2.5944     0.0243 C
18 H18     4.4047     2.9782    -0.2278 H
19 C19    -3.4586    -0.6795    -0.0078 C
20 C20    -1.1547     2.6633     1.1025 C
21 H21    -2.0735     2.7540     0.5486 H
22 C22     0.9371     1.6132     0.6726 C
23 C23     1.1387     2.9956     0.5526 C
24 C24    -2.3138    -0.5995     0.8059 C
25 C25    -4.5348    -2.0915     1.6012 C
26 H26    -5.3839    -2.6668     1.9167 H
27 C27     1.9362    -1.3019    -1.7138 C
28 H28     2.0416    -0.2623    -1.9476 H
29 C29     1.4770    -2.5771     2.2916 C
30 H30     1.3594    -2.8936     3.3101 H
31 C31    -2.3126     1.9195    -3.1007 C
32 H32    -1.9592     2.5943    -3.8573 H
33 C33    -3.2400     0.1642    -1.1733 C
34 C34     1.6386    -3.0678    -0.0663 C
35 C35    -1.5052     2.6756     2.6106 C
36 H36    -2.0063     3.6054     2.8568 H
37 H37    -0.6128     2.6010     3.2229 H
38 H38    -2.1671     1.8579     2.8641 H
39 C39    -0.1412     3.7607     0.7371 C
40 H40    -0.4238     4.2684    -0.1807 H
41 H41    -0.0584     4.5162     1.5104 H
42 C42    -1.5396     1.6866    -1.9718 C
43 H43    -0.5804     2.1587    -1.8768 H
44 C44    -3.5326     1.2709    -3.2731 C
45 H45    -4.1101     1.4495    -4.1600 H
46 C46    -3.4062    -2.0116     2.4156 C
47 H47    -3.3913    -2.5341     3.3535 H
48 C48    -3.9966     0.3809    -2.3133 C
49 H49    -4.9278    -0.1330    -2.4609 H
50 C50     1.6325    -4.0061    -1.1319 C
51 H51     1.5090    -5.0472    -0.8993 H
52 C52     1.7725    -3.5988    -2.4232 C
53 H53     1.7624    -4.3143    -3.2228 H
54 C54     1.4822    -3.4861     1.2811 C
55 H55     1.3641    -4.5333     1.4870 H
56 C56     5.5787     0.6923    -0.3574 C
57 H57     6.0169     1.3279     0.4013 H
58 H58     5.5980     1.1969    -1.3149 H
59 H59     6.1318    -0.2281    -0.4225 H
60 C60     1.9234    -2.2243    -2.7161 C
61 H61     2.0215    -1.9094    -3.7372 H
@<TRIPOS>BOND
1 1 4 1
2 1 56 1
3 2 6 2
4 2 13 1
5 2 14 Ar
6 3 5 Ar
7 3 20 1
8 3 22 1
9 4 13 Ar
10 4 17 Ar
11 5 8 1
12 5 24 1
13 6 7 1
14 6 29 Ar
15 8 33 Ar
16 8 42 Ar
17 9 10 1
18 9 24 Ar
19 9 46 2
20 11 12 1
21 11 17 Ar
22 11 23 2
23 13 22 Ar
24 14 27 Ar
25 14 34 Ar
26 15 16 1
27 15 19 Ar
28 15 25 Ar
29 17 18 1
30 19 24 Ar
31 19 33 1
32 20 21 1
33 20 35 1
34 20 39 1
35 22 23 Ar
36 23 39 1
37 25 26 1
38 25 46 Ar
39 27 28 1
40 27 60 2
41 29 30 1
42 29 54 2
43 31 32 1
44 31 42 Ar
45 31 44 Ar
46 33 48 2
47 34 50 Ar
48 34 54 Ar
49 35 36 1
50 35 37 1
51 35 38 1
52 39 40 1
53 39 41 1
54 42 43 1
55 44 45 1
56 44 48 Ar
57 46 47 1
58 48 49 1
59 50 51 1
60 50 52 2
61 52 53 1
62 52 60 Ar
63 54 55 1
64 56 57 1
65 56 58 1
66 56 59 1
67 60 61 1
